CHEM 1A
 1B
 1C
CHEM 1LC
MATH 2A
 2B
MATH 2D
MATH 2E
MATH 3A
MATH 3D
PHYSICS 7C
PHYSICS 7LC
PHYSICS 7D
 7E
PHYSICS 7LD
STATS 8
BME 1
BME 50A
 50B
BME 60A
 60B
 60C
BME 110A
 110B
 110C
BME 111
BME 120
BME 121
BME 130
BME 140
BME 150
BME 170
BME 180A
 180B
 180C
ENGR 190W
